% ------------- DIRECT, ADJOINT, AND LINEARIZED PROBLEM DEFINITION ------------%

SOLVER= INC_RANS
KIND_TURB_MODEL= SST
SST_OPTIONS= V2003m
KIND_TRANS_MODEL= LM
LM_OPTIONS= MENTER_LANGTRY
MATH_PROBLEM= DIRECT
RESTART_SOL= YES

% ---------------- INCOMPRESSIBLE FLOW CONDITION DEFINITION -------------------%

INC_DENSITY_MODEL= VARIABLE
INC_ENERGY_EQUATION = YES
INC_TEMPERATURE_INIT= 288.15
INC_DENSITY_INIT= 1.225
INC_VELOCITY_INIT= ( 20, 0.0, 0.0 )
INC_NONDIM= INITIAL_VALUES

% ---------------------- REFERENCE VALUE DEFINITION ---------------------------%

REF_ORIGIN_MOMENT_X = 0.00
REF_ORIGIN_MOMENT_Y = 0.00
REF_ORIGIN_MOMENT_Z = 0.00
REF_LENGTH= 0.32
REF_AREA= 0

% ---------------------- IDEAL GAS ----------------------%

FLUID_MODEL= INC_IDEAL_GAS
SPECIFIC_HEAT_CP= 1004.703
MOLECULAR_WEIGHT= 28.96

% --------------------------- VISCOSITY MODEL ---------------------------------%

VISCOSITY_MODEL= CONSTANT_VISCOSITY
MU_CONSTANT= 1.853e-05

% --------------------------- THERMAL CONDUCTIVITY MODEL ----------------------%

CONDUCTIVITY_MODEL= CONSTANT_PRANDTL
PRANDTL_LAM= 0.72
PRANDTL_TURB= 0.90

% -------------------- BOUNDARY CONDITION DEFINITION --------------------------%

MARKER_FAR= (top,inlet,outlet)
MARKER_HEATFLUX= (Airfoil1, 0.0, Airfoil2, 0.0, Nose, 0.0)
MARKER_EULER= (bottom)
MARKER_PLOTTING= (Airfoil1, Airfoil2)
MARKER_MONITORING= (Airfoil1,Airfoil2)

% ------------- COMMON PARAMETERS DEFINING THE NUMERICAL METHOD ---------------%

NUM_METHOD_GRAD= GREEN_GAUSS
CFL_NUMBER= 10.0
CFL_ADAPT= YES
CFL_ADAPT_PARAM= ( 0.5, 1.1, 1.0, 100)
RK_ALPHA_COEFF= ( 0.66667, 0.66667, 1.000000 )
ITER= 99999

% ------------------------ LINEAR SOLVER DEFINITION ---------------------------%

LINEAR_SOLVER= FGMRES
LINEAR_SOLVER_PREC= ILU
LINEAR_SOLVER_ERROR= 1e-6
LINEAR_SOLVER_ITER= 100

% -------------------- FLOW NUMERICAL METHOD DEFINITION -----------------------%

CONV_NUM_METHOD_FLOW= JST
MUSCL_FLOW= NO
JST_SENSOR_COEFF= ( 0.5, 0.02 )
TIME_DISCRE_FLOW= EULER_IMPLICIT

% -------------------- TURBULENT NUMERICAL METHOD DEFINITION ------------------%

CONV_NUM_METHOD_TURB= SCALAR_UPWIND
MUSCL_TURB= NO
TIME_DISCRE_TURB= EULER_IMPLICIT

% --------------------------- CONVERGENCE PARAMETERS --------------------------%

CONV_FIELD= RMS_PRESSURE
CONV_RESIDUAL_MINVAL= -9
CONV_STARTITER= 10
CONV_CAUCHY_ELEMS= 100
CONV_CAUCHY_EPS= 1E-6

% ---------------- ADJOINT-FLOW NUMERICAL METHOD DEFINITION -------------------%
% Adjoint problem boundary condition (DRAG, LIFT, SIDEFORCE, MOMENT_X,
%                                     MOMENT_Y, MOMENT_Z, EFFICIENCY, 
%                                     EQUIVALENT_AREA, NEARFIELD_PRESSURE,
%                                     FORCE_X, FORCE_Y, FORCE_Z, THRUST, 
%                                     TORQUE)
OBJECTIVE_FUNCTION= LIFT
%
% Convective numerical method (JST, LAX-FRIEDRICH, ROE-1ST_ORDER, 
%                              ROE-2ND_ORDER)
CONV_NUM_METHOD_ADJFLOW= JST
%
% 2nd, and 4th order artificial dissipation coefficients
ADJ_JST_SENSOR_COEFF= ( 0.0, 0.02 )
%
% Time discretization (RUNGE-KUTTA_EXPLICIT, EULER_IMPLICIT)
TIME_DISCRE_ADJFLOW= EULER_IMPLICIT
%
% Reduction factor of the CFL coefficient in the adjoint problem
CFL_REDUCTION_ADJFLOW= 0.8
%
% Limit value for the adjoint variable
LIMIT_ADJFLOW= 1E6

% -------------------------- MULTIGRID PARAMETERS -----------------------------%
%
% Multi-Grid Levels (0 = no multi-grid)
MGLEVEL= 2
%
% Multi-grid cycle (V_CYCLE, W_CYCLE, FULLMG_CYCLE)
MGCYCLE= V_CYCLE
%
% Multi-Grid PreSmoothing Level
MG_PRE_SMOOTH= ( 1, 2, 3, 3 )
%
% Multi-Grid PostSmoothing Level
MG_POST_SMOOTH= ( 0, 0, 0, 0 )
%
% Jacobi implicit smoothing of the correction
MG_CORRECTION_SMOOTH= ( 0, 0, 0, 0 )
%
% Damping factor for the residual restriction
MG_DAMP_RESTRICTION= 1.0
%
% Damping factor for the correction prolongation
MG_DAMP_PROLONGATION= 1.0

% ----------------------- GEOMETRY EVALUATION PARAMETERS ----------------------%
%
% Marker(s) of the surface where geometrical based function will be evaluated
GEO_MARKER= ( Airfoil1)
%
% Description of the geometry to be analyzed (AIRFOIL, WING, FUSELAGE)
GEO_DESCRIPTION= AIRFOIL
%
% Geometrical evaluation mode (FUNCTION, GRADIENT)
GEO_MODE= FUNCTION

% ----------------------- DESIGN VARIABLE PARAMETERS --------------------------%
%
% Kind of deformation (FFD_SETTING, HICKS_HENNE, HICKS_HENNE_NORMAL, PARABOLIC,
%                      HICKS_HENNE_SHOCK, NACA_4DIGITS, DISPLACEMENT, ROTATION, 
%                      FFD_CONTROL_POINT, FFD_DIHEDRAL_ANGLE, FFD_TWIST_ANGLE, 
%                      FFD_ROTATION)
DV_KIND= HICKS_HENNE
%
% Marker of the surface in which we are going apply the shape deformation
DV_MARKER= ( Airfoil1 )
%
% Parameters of the shape deformation 
% 	- HICKS_HENNE_FAMILY ( Lower(0)/Upper(1) side, x_Loc )
% 	- NACA_4DIGITS ( 1st digit, 2nd digit, 3rd and 4th digit )
% 	- PARABOLIC ( 1st digit, 2nd and 3rd digit )
% 	- DISPLACEMENT ( x_Disp, y_Disp, z_Disp )
% 	- ROTATION ( x_Orig, y_Orig, z_Orig, x_End, y_End, z_End )
DV_PARAM= ( 1, 0.3 )
%
% Value of the shape deformation deformation
DV_VALUE= 1.0

% ------------------------ GRID DEFORMATION PARAMETERS ------------------------%
%
% Number of smoothing iterations for FEA mesh deformation
DEFORM_LINEAR_SOLVER_ITER= 500
%
% Number of nonlinear deformation iterations (surface deformation increments)
DEFORM_NONLINEAR_ITER= 1
%
% Print the residuals during mesh deformation to the console (YES, NO)
DEFORM_CONSOLE_OUTPUT= YES
%
% Minimum residual criteria for the linear solver convergence of grid deformation
DEFORM_LINEAR_SOLVER_ERROR= 1E-9
%
% Type of element stiffness imposed for FEA mesh deformation (INVERSE_VOLUME, 
%                                          WALL_DISTANCE, CONSTANT_STIFFNESS)
DEFORM_STIFFNESS_TYPE= INVERSE_VOLUME

% ------------------------- INPUT/OUTPUT INFORMATION --------------------------%

% MESH_FILENAME= mesh.su2
% MESH_FORMAT= SU2
% SOLUTION_FILENAME= restart_flow.dat
% TABULAR_FORMAT= CSV
% CONV_FILENAME= history
% RESTART_FILENAME= restart_flow.dat
% VOLUME_FILENAME= flow
% SURFACE_FILENAME= surface_flow
% OUTPUT_WRT_FREQ= 100
% SCREEN_OUTPUT= (INNER_ITER, LINSOL_ITER, RMS_PRESSURE, LIFT, DRAG, AVG_CFL)
% VOLUME_OUTPUT= (COORDINATES, SOLUTION, PRIMITIVE, RESIDUAL)
% HISTORY_OUTPUT= (ITER, LINSOL, RMS_RES, HEAT, AERO_COEFF, CFL_NUMBER)
%
% Mesh input file
MESH_FILENAME= mesh.su2
%
% Mesh input file format (SU2, CGNS, NETCDF_ASCII)
MESH_FORMAT= SU2
%
% Mesh output file
MESH_OUT_FILENAME= mesh_out.su2
%
% Restart flow input file
SOLUTION_FILENAME= solution_flow.dat
%
% Restart adjoint input file
SOLUTION_ADJ_FILENAME= solution_adj.dat
%
% Output tabular format (CSV, TECPLOT)
TABULAR_FORMAT= CSV
%
% Output file convergence history (w/o extension) 
CONV_FILENAME= history
%
% Output file restart flow
RESTART_FILENAME= restart_flow.dat
%
% Output file restart adjoint
RESTART_ADJ_FILENAME= restart_adj.dat
%
% Output file flow (w/o extension) variables
VOLUME_FILENAME= flow
%
% Output file adjoint (w/o extension) variables
VOLUME_ADJ_FILENAME= adjoint
%
% Output Objective function gradient (using continuous adjoint)
GRAD_OBJFUNC_FILENAME= of_grad.dat
%
% Output file surface flow coefficient (w/o extension)
SURFACE_FILENAME= surface_flow
%
% Output file surface adjoint coefficient (w/o extension)
SURFACE_ADJ_FILENAME= surface_adjoint
SCREEN_OUTPUT= (INNER_ITER, LINSOL_ITER, RMS_PRESSURE, LIFT, DRAG, AVG_CFL)
VOLUME_OUTPUT= (COORDINATES, SOLUTION, PRIMITIVE, RESIDUAL)
HISTORY_OUTPUT= (ITER, LINSOL, RMS_RES, HEAT, AERO_COEFF, CFL_NUMBER)

% --------------------- OPTIMAL SHAPE DESIGN DEFINITION -----------------------%
%
% Available flow based objective functions or constraint functions
%    DRAG, LIFT, SIDEFORCE, EFFICIENCY, BUFFET, 
%    FORCE_X, FORCE_Y, FORCE_Z,
%    MOMENT_X, MOMENT_Y, MOMENT_Z,
%    THRUST, TORQUE, FIGURE_OF_MERIT,
%    EQUIVALENT_AREA, NEARFIELD_PRESSURE,
%    TOTAL_HEATFLUX, MAXIMUM_HEATFLUX,
%    INVERSE_DESIGN_PRESSURE, INVERSE_DESIGN_HEATFLUX,
%    SURFACE_TOTAL_PRESSURE, SURFACE_MASSFLOW
%    SURFACE_STATIC_PRESSURE, SURFACE_MACH
%
% Available geometrical based objective functions or constraint functions
%    AIRFOIL_AREA, AIRFOIL_THICKNESS, AIRFOIL_CHORD, AIRFOIL_TOC, AIRFOIL_AOA,
%    WING_VOLUME, WING_MIN_THICKNESS, WING_MAX_THICKNESS, WING_MAX_CHORD, WING_MIN_TOC, WING_MAX_TWIST, WING_MAX_CURVATURE, WING_MAX_DIHEDRAL
%    STATION#_WIDTH, STATION#_AREA, STATION#_THICKNESS, STATION#_CHORD, STATION#_TOC,
%    STATION#_TWIST (where # is the index of the station defined in GEO_LOCATION_STATIONS)
%
% Available design variables
% 2D Design variables
%    FFD_CONTROL_POINT_2D   (  19, Scale | Mark. List | FFD_BoxTag, i_Ind, j_Ind, x_Mov, y_Mov )
%    FFD_CAMBER_2D          (  20, Scale | Mark. List | FFD_BoxTag, i_Ind )
%    FFD_THICKNESS_2D       (  21, Scale | Mark. List | FFD_BoxTag, i_Ind )
%    FFD_TWIST_2D           (  22, Scale | Mark. List | FFD_BoxTag, x_Orig, y_Orig )
%    HICKS_HENNE            (  30, Scale | Mark. List | Lower(0)/Upper(1) side, x_Loc )
%    ANGLE_OF_ATTACK        ( 101, Scale | Mark. List | 1.0 )
%
% 3D Design variables
%    FFD_CONTROL_POINT      (  11, Scale | Mark. List | FFD_BoxTag, i_Ind, j_Ind, k_Ind, x_Mov, y_Mov, z_Mov )
%    FFD_NACELLE            (  12, Scale | Mark. List | FFD_BoxTag, rho_Ind, theta_Ind, phi_Ind, rho_Mov, phi_Mov )
%    FFD_GULL               (  13, Scale | Mark. List | FFD_BoxTag, j_Ind )
%    FFD_CAMBER             (  14, Scale | Mark. List | FFD_BoxTag, i_Ind, j_Ind )
%    FFD_TWIST              (  15, Scale | Mark. List | FFD_BoxTag, j_Ind, x_Orig, y_Orig, z_Orig, x_End, y_End, z_End )
%    FFD_THICKNESS          (  16, Scale | Mark. List | FFD_BoxTag, i_Ind, j_Ind )
%    FFD_ROTATION           (  18, Scale | Mark. List | FFD_BoxTag, x_Axis, y_Axis, z_Axis, x_Turn, y_Turn, z_Turn )
%    FFD_ANGLE_OF_ATTACK    (  24, Scale | Mark. List | FFD_BoxTag, 1.0 )
%
% Global design variables
%    TRANSLATION            (   1, Scale | Mark. List | x_Disp, y_Disp, z_Disp )
%    ROTATION               (   2, Scale | Mark. List | x_Axis, y_Axis, z_Axis, x_Turn, y_Turn, z_Turn )
%
% Optimization objective function with scaling factor, separated by semicolons.
% To include quadratic penalty function: use OPT_CONSTRAINT option syntax within the OPT_OBJECTIVE list.
% ex= Objective * Scale
OPT_OBJECTIVE= LIFT
%
% Optimization constraint functions with pushing factors (affects its value, not the gradient  
% in the python scripts), separated by semicolons
% ex= (Objective = Value ) * Scale, use '>','<','='
OPT_CONSTRAINT= NONE
%
% Factor to reduce the norm of the gradient (affects the objective function and gradient in the python scripts)
% In general, a norm of the gradient ~1E-6 is desired.
OPT_GRADIENT_FACTOR= 1E-6
%
% Factor to relax or accelerate the optimizer convergence (affects the line search in SU2_DEF)
% In general, surface deformations of 0.01'' or 0.0001m are desirable
OPT_RELAX_FACTOR= 0.01
%
% Maximum number of optimizer iterations
OPT_ITERATIONS= 100
%
% Requested accuracy
OPT_ACCURACY= 1E-6
%
% Upper bound for each design variable
OPT_BOUND_UPPER= 0.1
%
% Lower bound for each design variable
OPT_BOUND_LOWER= -0.1
%
% Optimization design variables, separated by semicolons
DEFINITION_DV= ( 30, 1.0 | Airfoil1 | 0, 0.16013 ) ; ( 30, 1.0 | Airfoil1 | 0, 0.16063 ) ; ( 30, 1.0 | Airfoil1 | 0, 0.16232 ) ; ( 30, 1.0 | Airfoil1 | 0, 0.16523 ) ; ( 30, 1.0 | Airfoil1 | 0, 0.16942 ) ; ( 30, 1.0 | Airfoil1 | 0, 0.17493 ) ; ( 30, 1.0 | Airfoil1 | 0, 0.18172 ) ; ( 30, 1.0 | Airfoil1 | 0, 0.18972 ) ; ( 30, 1.0 | Airfoil1 | 0, 0.19887 ) ; ( 30, 1.0 | Airfoil1 | 0, 0.20907 ) ; ( 30,