%%%%%%%%%%%%%%%%%%%%%%%%%%%%%%%%%%%%%%%%%%%%%%%%%%%%%%%%%%%%%%%%%%%%%%%%%%%%%%%%
%                                                                              %
% SU2 configuration file                                                       %
% Case description: Transonic simulation RAE2822 (RANS)                        %
% Author: Francisco Palacios                                                   %
% Institution: Stanford University                                             %
% Date: 5/15/2013                                                              %
% File Version 7.0.6 "Blackbird"                                                %
%                                                                              %
%%%%%%%%%%%%%%%%%%%%%%%%%%%%%%%%%%%%%%%%%%%%%%%%%%%%%%%%%%%%%%%%%%%%%%%%%%%%%%%%

% ------------- DIRECT, ADJOINT, AND LINEARIZED PROBLEM DEFINITION ------------%
%
% Physical governing equations (EULER, NAVIER_STOKES,
%                               WAVE_EQUATION, HEAT_EQUATION, FEM_ELASTICITY,
%                               POISSON_EQUATION)                        
SOLVER= RANS
%
% Specify turbulent model (NONE, SA, SA_NEG, SST)
KIND_TURB_MODEL= SST

SST_OPTIONS= V2003m
%
% Mathematical problem (DIRECT, CONTINUOUS_ADJOINT)
MATH_PROBLEM= DIRECT
%
% Restart solution (NO, YES)
RESTART_SOL= NO
% -------------------- COMPRESSIBLE FREE-STREAM DEFINITION --------------------%
%
% Mach number (non-dimensional, based on the free-stream values)
MACH_NUMBER= 0.05
%
% Angle of attack (degrees, only for compressible flows)
AOA= 0
%
% Free-stream temperature (288.15 K by default)
FREESTREAM_TEMPERATURE= 288.15
% Free-stream pressure (101325.0 N/m^2, 2116.216 psf by default)
%FREESTREAM_PRESSURE= 101325.0
%
% Reynolds number (non-dimensional, based on the free-stream values)
REYNOLDS_NUMBER= 4.4E6
%
% Reynolds length (1 m by default)
REYNOLDS_LENGTH= 0.32

% ---------------------- REFERENCE VALUE DEFINITION ---------------------------%
%
% Reference origin for moment computation
REF_ORIGIN_MOMENT_X = 0.25
REF_ORIGIN_MOMENT_Y = 0.00
REF_ORIGIN_MOMENT_Z = 0.00
%
% Reference length for pitching, rolling, and yawing non-dimensional moment
REF_LENGTH= 0.32
%
% Reference area for force coefficients (0 implies automatic calculation)
REF_AREA= 0

REF_DIMENSIONALIZATION= FREESTREAM_VEL_EQ_ONE

% ---------------------- IDEAL GAS ----------------------%

FLUID_MODEL= STANDARD_AIR
GAMMA_VALUE= 1.4
GAS_CONSTANT= 287.058

% --------------------------- VISCOSITY MODEL ---------------------------------%

VISCOSITY_MODEL= SUTHERLAND
MU_REF= 1.716E-5
MU_T_REF= 273.15
SUTHERLAND_CONSTANT= 110.4

% -------------------- BOUNDARY CONDITION DEFINITION --------------------------%
INLET_TYPE= TOTAL_CONDITIONS
MARKER_INLET= (inlet,288.15,101570,1.0, 0.0, 0.0)
MARKER_OUTLET= (outlet, 101325)
MARKER_EULER= (bottom,top)
% MARKER_FAR= (top)
MARKER_HEATFLUX= (Airfoil1, 0.0, Airfoil2, 0.0)
MARKER_MONITORING= (Airfoil1, Airfoil2)
MARKER_PLOTTING= (Airfoil1, Airfoil2)

% ------------- COMMON PARAMETERS DEFINING THE NUMERICAL METHOD ---------------%
%
% Numerical method for spatial gradients (GREEN_GAUSS, WEIGHTED_LEAST_SQUARES)
NUM_METHOD_GRAD= GREEN_GAUSS
% NUM_METHOD_GRAD_RECON= LEAST_SQUARES
%
% Courant-Friedrichs-Lewy condition of the finest grid
CFL_NUMBER= 10
%
% Adaptive CFL number (NO, YES)
CFL_ADAPT= YES
%
% Parameters of the adaptive CFL number (factor down, factor up, CFL min value,
%                                        CFL max value )
CFL_ADAPT_PARAM= ( 0.1, 1.1, 1.0, 10000.0 )
%
% Number of total iterations
ITER= 99999
%
% Linear solver for the implicit formulation (BCGSTAB, FGMRES)
LINEAR_SOLVER= FGMRES
%
% Min error of the linear solver for the implicit formulation
LINEAR_SOLVER_ERROR= 1E-6
%
% Max number of iterations of the linear solver for the implicit formulation
LINEAR_SOLVER_ITER= 50
% -------------------- FLOW NUMERICAL METHOD DEFINITION -----------------------%
%
% Convective numerical method (JST, LAX-FRIEDRICH, CUSP, ROE, AUSM, HLLC,
%                              TURKEL_PREC, MSW)
CONV_NUM_METHOD_FLOW= ROE
%
% Monotonic Upwind Scheme for Conservation Laws (TVD) in the flow equations.
%           Required for 2nd order upwind schemes (NO, YES)
MUSCL_FLOW= YES
%
% Slope limiter (VENKATAKRISHNAN, MINMOD)
SLOPE_LIMITER_FLOW= NONE
%
% Coefficient for the limiter (smooth regions)
% VENKAT_LIMITER_COEFF= 0.05
%
% 2nd and 4th order artificial dissipation coefficients
% JST_SENSOR_COEFF= ( 0.5, 0.02 )
%
% Time discretization (RUNGE-KUTTA_EXPLICIT, EULER_IMPLICIT, EULER_EXPLICIT)
TIME_DISCRE_FLOW= EULER_IMPLICIT

% -------------------- TURBULENT NUMERICAL METHOD DEFINITION ------------------%
%
% Convective numerical method (SCALAR_UPWIND)
CONV_NUM_METHOD_TURB= SCALAR_UPWIND
%
% Monotonic Upwind Scheme for Conservation Laws (TVD) in the turbulence equations.
%           Required for 2nd order upwind schemes (NO, YES)
MUSCL_TURB= NO
%
% Time discretization (EULER_IMPLICIT)
TIME_DISCRE_TURB= EULER_IMPLICIT


% --------------------------- CONVERGENCE PARAMETERS --------------------------%
%
% Convergence criteria (CAUCHY, RESIDUAL)
%
CONV_FIELD= RMS_DENSITY
%
% Min value of the residual (log10 of the residual)
CONV_RESIDUAL_MINVAL= -9
%
% Start convergence criteria at iteration number
CONV_STARTITER= 10
%
% Number of elements to apply the criteria
CONV_CAUCHY_ELEMS= 100
%
% Epsilon to control the series convergence
CONV_CAUCHY_EPS= 1E-6
%

% ------------------------- INPUT/OUTPUT INFORMATION --------------------------%
%
% Mesh input file
MESH_FILENAME= mesh.su2
%
% Mesh input file format (SU2, CGNS, NETCDF_ASCII)
MESH_FORMAT= SU2
%
% Mesh output file
% MESH_OUT_FILENAME= mesh_out.su2
%
% Restart flow input file
SOLUTION_FILENAME= restart_flow.dat
%
% Restart adjoint input file
%SOLUTION_ADJ_FILENAME= solution_adj.dat
%
% Output file format (PARAVIEW, TECPLOT, STL)
TABULAR_FORMAT= CSV
%
% Output file convergence history (w/o extension) 
CONV_FILENAME= history
%
% Output file restart flow
RESTART_FILENAME= restart_flow.dat
%
% Output file restart adjoint
%RESTART_ADJ_FILENAME= restart_adj.dat
%
% Output file flow (w/o extension) variables
VOLUME_FILENAME= flow
%
% Output file adjoint (w/o extension) variables
%VOLUME_ADJ_FILENAME= adjoint
%
% Output objective function gradient (using continuous adjoint)
%GRAD_OBJFUNC_FILENAME= of_grad.dat
%
% Output file surface flow coefficient (w/o extension)
SURFACE_FILENAME= surface_flow
%
% Output file surface adjoint coefficient (w/o extension)
%SURFACE_ADJ_FILENAME= surface_adjoint
%
% Writing solution file frequency
OUTPUT_WRT_FREQ= 500
%
% Writing convergence history frequency
%SCREEN_WRT_FREQ_INNER= 1
%
% Screen output fields 
SCREEN_OUTPUT= (INNER_ITER, RMS_DENSITY, RMS_NU_TILDE, LIFT, DRAG)
VOLUME_OUTPUT= (COORDINATES, SOLUTION, PRIMITIVE, RESIDUAL)
HISTORY_OUTPUT= (ITER, LINSOL, RMS_RES, HEAT, AERO_COEFF, CFL_NUMBER)
