SOLVER= INC_RANS
KIND_TURB_MODEL= SST
SST_OPTIONS= V2003m
KIND_TRANS_MODEL= LM
LM_OPTIONS= MENTER_LANGTRY
MATH_PROBLEM= DIRECT
RESTART_SOL= NO
INC_DENSITY_MODEL= VARIABLE
INC_ENERGY_EQUATION= YES
INC_TEMPERATURE_INIT= 288.15
INC_DENSITY_INIT= 1.225
INC_VELOCITY_INIT= ( 20, 0.0, 0.0 )
INC_NONDIM= INITIAL_VALUES
REF_ORIGIN_MOMENT_X= 0.00
REF_ORIGIN_MOMENT_Y= 0.00
REF_ORIGIN_MOMENT_Z= 0.00
REF_LENGTH= 0.32
REF_AREA= 0
FLUID_MODEL= INC_IDEAL_GAS
SPECIFIC_HEAT_CP= 1004.703
MOLECULAR_WEIGHT= 28.96
VISCOSITY_MODEL= CONSTANT_VISCOSITY
MU_CONSTANT= 1.853e-05
CONDUCTIVITY_MODEL= CONSTANT_PRANDTL
PRANDTL_LAM= 0.72
PRANDTL_TURB= 0.90
MARKER_FAR= ( top, inlet, outlet )
MARKER_HEATFLUX= (Airfoil1, 0.0)
MARKER_EULER= ( bottom )
MARKER_PLOTTING= ( Airfoil1 )
MARKER_MONITORING= ( Airfoil1 )
NUM_METHOD_GRAD= GREEN_GAUSS
CFL_NUMBER= 10.0
CFL_ADAPT= YES
CFL_ADAPT_PARAM= ( 0.5, 1.1, 1.0, 100)
RK_ALPHA_COEFF= ( 0.66667, 0.66667, 1.000000 )
ITER= 99999
LINEAR_SOLVER= FGMRES
LINEAR_SOLVER_PREC= ILU
LINEAR_SOLVER_ERROR= 1e-6
LINEAR_SOLVER_ITER= 100
CONV_NUM_METHOD_FLOW= JST
MUSCL_FLOW= NO
JST_SENSOR_COEFF= ( 0.5, 0.02 )
TIME_DISCRE_FLOW= EULER_IMPLICIT
CONV_NUM_METHOD_TURB= SCALAR_UPWIND
MUSCL_TURB= NO
TIME_DISCRE_TURB= EULER_IMPLICIT
CONV_FIELD= RMS_PRESSURE
CONV_RESIDUAL_MINVAL= -9
CONV_STARTITER= 10
CONV_CAUCHY_ELEMS= 100
CONV_CAUCHY_EPS= 1E-6
OBJECTIVE_FUNCTION= LIFT
CONV_NUM_METHOD_ADJFLOW= JST
ADJ_JST_SENSOR_COEFF= ( 0.0, 0.02 )
TIME_DISCRE_ADJFLOW= EULER_IMPLICIT
CFL_REDUCTION_ADJFLOW= 0.8
LIMIT_ADJFLOW= 1E6
GEO_MARKER= (Airfoil1)
GEO_DESCRIPTION= AIRFOIL
GEO_MODE= FUNCTION
DV_KIND= HICKS_HENNE, HICKS_HENNE, HICKS_HENNE, HICKS_HENNE, HICKS_HENNE, HICKS_HENNE, HICKS_HENNE, HICKS_HENNE, HICKS_HENNE, HICKS_HENNE, HICKS_HENNE, HICKS_HENNE, HICKS_HENNE, HICKS_HENNE, HICKS_HENNE, HICKS_HENNE, HICKS_HENNE, HICKS_HENNE, HICKS_HENNE, HICKS_HENNE, HICKS_HENNE, HICKS_HENNE, HICKS_HENNE, HICKS_HENNE, HICKS_HENNE, HICKS_HENNE, HICKS_HENNE, HICKS_HENNE, HICKS_HENNE, HICKS_HENNE, H
DV_MARKER= ( ( Airfoil1 ) )
DV_PARAM= ( 1.0, 0.47967) ; ( 1.0, 0.47867) ; ( 1.0, 0.47569) ; ( 1.0, 0.47081) ; ( 1.0, 0.46415) ; ( 1.0, 0.45584) ; ( 1.0, 0.44602) ; ( 1.0, 0.43487) ; ( 1.0, 0.42255) ; ( 1.0, 0.40925) ; ( 1.0, 0.39514) ; ( 1.0, 0.3804) ; ( 1.0, 0.36519) ; ( 1.0, 0.34966) ; ( 1.0, 0.33397) ; ( 1.0, 0.3183) ; ( 1.0, 0.30278) ; ( 1.0, 0.28758) ; ( 1.0, 0.27282) ; ( 1.0, 0.25864) ; ( 1.0, 0.24511) ; ( 1.0, 0.23228
DV_VALUE= 0.0, 0.0, 0.0, 0.0, 0.0, 0.0, 0.0, 0.0, 0.0, 0.0, 0.0, 0.0, 0.0, 0.0, 0.0, 0.0, 0.0, 0.0, 0.0, 0.0, 0.0, 0.0, 0.0, 0.0, 0.0, 0.0, 0.0, 0.0, 0.0, 0.0, 0.0, 0.0, 0.0, 0.0, 0.0, 0.0, 0.0, 0.0, 0.0, 0.0, 0.0, 0.0, 0.0, 0.0, 0.0, 0.0, 0.0, 0.0, 0.0, 0.0, 0.0, 0.0, 0.0, 0.0, 0.0, 0.0, 0.0, 0.0, 0.0, 0.0
DEFORM_LINEAR_SOLVER_ITER= 500
DEFORM_NONLINEAR_ITER= 1
DEFORM_CONSOLE_OUTPUT= YES
DEFORM_LINEAR_SOLVER_ERROR= 1E-9
DEFORM_STIFFNESS_TYPE= INVERSE_VOLUME
MESH_FILENAME= prova.su2
MESH_FORMAT= SU2
MESH_OUT_FILENAME= mesh_out.su2
SOLUTION_FILENAME= restart_flow.dat
SOLUTION_ADJ_FILENAME= solution_adj.dat
TABULAR_FORMAT= CSV
CONV_FILENAME= history_direct
RESTART_FILENAME= restart_flow.dat
RESTART_ADJ_FILENAME= restart_adj.dat
VOLUME_FILENAME= flow
VOLUME_ADJ_FILENAME= adjoint
GRAD_OBJFUNC_FILENAME= of_grad.dat
SURFACE_FILENAME= surface_flow
SURFACE_ADJ_FILENAME= surface_adjoint
SCREEN_OUTPUT= (INNER_ITER, LINSOL_ITER, RMS_PRESSURE, LIFT, DRAG, AVG_CFL)
VOLUME_OUTPUT= (COORDINATES, SOLUTION, PRIMITIVE, RESIDUAL)
HISTORY_OUTPUT= ITER, LINSOL, RMS_RES, HEAT, AERO_COEFF, CFL_NUMBER
OPT_OBJECTIVE= LIFT * 1.0 
OPT_CONSTRAINT= NONE
OPT_GRADIENT_FACTOR= 1E-6
OPT_RELAX_FACTOR= 1E2
OPT_ITERATIONS= 100
OPT_ACCURACY= 1E-6
OPT_BOUND_UPPER= 0.1
OPT_BOUND_LOWER= -0.1
DEFINITION_DV= ( 30 , 1.0 | Airfoil1  | 1.0 , 0.47967  ); ( 30 , 1.0 | Airfoil1  | 1.0 , 0.47867  ); ( 30 , 1.0 | Airfoil1  | 1.0 , 0.47569  ); ( 30 , 1.0 | Airfoil1  | 1.0 , 0.47081  ); ( 30 , 1.0 | Airfoil1  | 1.0 , 0.46415  ); ( 30 , 1.0 | Airfoil1  | 1.0 , 0.45584  ); ( 30 , 1.0 | Airfoil1  | 1.0 , 0.44602  ); ( 30 , 1.0 | Airfoil1  | 1.0 , 0.43487  ); ( 30 , 1.0 | Airfoil1  | 1.0 , 0.42255  )
DV_VALUE_NEW= 0.0, 0.0, 0.0, 0.0, 0.0, 0.0, 0.0, 0.0, 0.0, 0.0, 0.0, 0.0, 0.0, 0.0, 0.0, 0.0, 0.0, 0.0, 0.0, 0.0, 0.0, 0.0, 0.0, 0.0, 0.0, 0.0, 0.0, 0.0, 0.0, 0.0, 0.0, 0.0, 0.0, 0.0, 0.0, 0.0, 0.0, 0.0, 0.0, 0.0, 0.0, 0.0, 0.0, 0.0, 0.0, 0.0, 0.0, 0.0, 0.0, 0.0, 0.0, 0.0, 0.0, 0.0, 0.0, 0.0, 0.0, 0.0, 0.0, 0.0
DV_VALUE_OLD= 0.0, 0.0, 0.0, 0.0, 0.0, 0.0, 0.0, 0.0, 0.0, 0.0, 0.0, 0.0, 0.0, 0.0, 0.0, 0.0, 0.0, 0.0, 0.0, 0.0, 0.0, 0.0, 0.0, 0.0, 0.0, 0.0, 0.0, 0.0, 0.0, 0.0, 0.0, 0.0, 0.0, 0.0, 0.0, 0.0, 0.0, 0.0, 0.0, 0.0, 0.0, 0.0, 0.0, 0.0, 0.0, 0.0, 0.0, 0.0, 0.0, 0.0, 0.0, 0.0, 0.0, 0.0, 0.0, 0.0, 0.0, 0.0, 0.0, 0.0
OPT_COMBINE_OBJECTIVE= NO
VALUE_OBJFUNC_FILENAME= of_eval.dat
AOA= 0.0
SIDESLIP_ANGLE= 0.0
MACH_NUMBER= 0.0
REYNOLDS_NUMBER= 0.0
TARGET_CL= 0.0
FREESTREAM_PRESSURE= 101325.0
FREESTREAM_TEMPERATURE= 288.15
MARKER_OUTLET= (NONE)
MULTIPOINT_WEIGHT= (1.0)
MULTIPOINT_MACH_NUMBER= (0.0)
MULTIPOINT_AOA= (0.0)
MULTIPOINT_SIDESLIP_ANGLE= (0.0)
MULTIPOINT_REYNOLDS_NUMBER= (0.0)
MULTIPOINT_TARGET_CL= (0.0)
MULTIPOINT_FREESTREAM_PRESSURE= (101325.0)
MULTIPOINT_FREESTREAM_TEMPERATURE= (288.15)
MULTIPOINT_OUTLET_VALUE= (0.0)
MULTIPOINT_MESH_FILENAME= (prova.su2)
NUMBER_PART= 4
NZONES= 1
CONSOLE= CONCISE
GRADIENT_METHOD= CONTINUOUS_ADJOINT
